$RunGauss
%Chk=1E67_small_opt.chk
%Mem=6000MB
%NProcShared=12
#N B3LYP/6-31G* Geom=PrintInputOrient Integral=(Grid=UltraFine) Opt
SCF=XQC
 
CLR
 
1  1
H          14.464   56.249   33.300
C          13.906   56.582   32.425
H          13.308   57.450   32.702
H          14.614   56.901   31.661
C          12.994   55.519   31.813
O          13.290   54.311   31.869
N          11.851   55.931   31.267
H          11.600   56.909   31.263
C          10.979   54.970   30.599
H          11.568   54.095   30.323
C           9.774   54.539   31.453
H           9.135   55.410   31.611
H           9.196   53.809   30.885
C          10.069   53.932   32.812
N          11.030   53.044   33.009
C          10.957   52.791   34.309
H          11.618   52.128   34.841
N           9.992   53.498   34.861
H           9.735   53.451   35.837
C           9.400   54.235   33.961
H           8.590   54.928   34.092
H          10.578   55.439   29.700
H          10.591   49.612   27.198
C          11.181   50.492   27.455
H          10.771   51.388   26.989
C          11.250   50.675   28.972
H          10.243   50.829   29.361
H          11.663   49.774   29.426
S          12.284   52.091   29.459
H          12.183   50.283   27.081
H          15.659   47.875   31.489
C          14.588   47.835   31.689
H          14.438   47.506   32.717
C          13.969   49.210   31.572
H          14.192   49.631   30.591
H          12.888   49.109   31.643
C          14.415   50.192   32.646
N          13.768   51.325   32.852
C          14.368   51.858   33.896
H          14.099   52.802   34.345
N          15.343   51.072   34.292
H          15.950   51.272   35.073
C          15.429   50.002   33.543
H          16.103   49.167   33.654
H          14.020   47.161   31.048
Zn         12.377   52.315   31.721
 
 
