$RunGauss
%Chk=1E67_large_mk.chk
%Mem=6000MB
%NProcShared=12
#N B3LYP/6-31G* Integral=(Grid=UltraFine) Pop(MK,ReadRadii) SCF=XQC
IOp(6/33=2)
 
CLR
 
1  1
H          15.718   55.854   36.091
C          14.811   55.265   35.954
H          15.063   54.217   35.793
H          14.238   55.367   36.875
C          14.047   55.763   34.730
O          12.816   55.813   34.742
N          14.659   56.133   33.607
H          15.666   56.098   33.546
C          13.906   56.582   32.425
H          13.308   57.450   32.702
H          14.614   56.901   31.661
C          12.994   55.519   31.813
O          13.290   54.311   31.869
N          11.851   55.931   31.267
H          11.600   56.909   31.263
C          10.979   54.970   30.599
H          11.548   54.125   30.332
C           9.774   54.539   31.453
H           9.135   55.410   31.611
H           9.196   53.809   30.885
C          10.069   53.932   32.812
N          11.030   53.044   33.009
C          10.957   52.791   34.309
H          11.618   52.128   34.841
N           9.992   53.498   34.861
H           9.735   53.451   35.837
C           9.400   54.235   33.961
H           8.590   54.928   34.092
C          10.427   55.616   29.361
O          10.175   56.815   29.376
N          10.395   54.855   28.286
H          10.682   53.887   28.336
C           9.709   55.293   27.119
H           9.090   56.169   27.313
H          10.420   55.527   26.326
H           9.054   54.461   26.863
H           8.184   48.011   25.064
C           8.982   47.876   25.794
H           8.554   47.516   26.730
H           9.740   47.182   25.431
C           9.623   49.225   26.035
O           9.371   50.180   25.300
N          10.390   49.312   27.110
H          10.514   48.491   27.685
C          11.181   50.492   27.455
H          10.771   51.387   26.990
C          11.250   50.675   28.972
H          10.243   50.829   29.361
H          11.663   49.774   29.426
S          12.284   52.091   29.459
C          12.599   50.196   26.926
O          13.097   49.088   27.205
N          13.311   51.089   26.218
H          12.925   51.995   25.990
C          14.638   50.755   25.757
H          14.746   49.675   25.659
H          14.842   51.177   24.773
C          15.711   51.217   26.705
O          16.912   51.048   26.403
N          15.333   51.817   27.840
H          14.355   51.943   28.057
C          16.351   52.308   28.792
H          16.960   53.042   28.265
H          15.903   52.793   29.659
C          17.194   51.119   29.253
O          16.591   50.077   29.535
N          18.528   51.211   29.352
H          19.055   52.071   29.295
H          20.363   50.579   29.816
C          19.402   50.097   29.634
H          19.483   49.495   28.729
C          18.939   49.214   30.788
O          18.710   49.709   31.887
N          18.672   47.936   30.529
H          18.795   47.579   29.594
C          18.310   47.008   31.581
H          18.669   46.019   31.297
H          18.815   47.288   32.507
C          16.810   46.909   31.860
O          16.373   45.904   32.443
N          16.004   47.888   31.424
H          16.384   48.697   30.953
C          14.588   47.835   31.689
H          14.438   47.505   32.719
C          13.969   49.210   31.572
H          14.192   49.631   30.591
H          12.888   49.109   31.643
C          14.415   50.192   32.646
N          13.768   51.325   32.852
C          14.368   51.858   33.896
H          14.099   52.802   34.345
N          15.343   51.072   34.292
H          15.950   51.272   35.073
C          15.429   50.002   33.543
H          16.103   49.167   33.654
C          13.795   46.894   30.794
O          12.861   46.269   31.322
N          14.090   46.683   29.504
H          14.856   47.183   29.075
C          13.233   45.853   28.653
H          12.255   46.332   28.615
H          13.621   45.830   27.635
H          13.084   44.827   28.991
Zn         12.377   52.315   31.721
 
Zn 1.395
 
 
