$RunGauss
%Chk=FAJYAR01_large_mk.chk
%Mem=6000MB
%NProcShared=12
#N B3LYP/SDD Integral=(Grid=UltraFine) Pop(MK,ReadRadii) SCF=XQC
IOp(6/33=2)
 
CLR
 
2  1
Os         25.839   11.380    7.526
N          26.789   12.578    6.146
C          28.000   13.155    6.239
C          28.539   13.923    5.169
C          27.806   14.052    4.003
C          26.522   13.509    3.911
C          26.037   12.777    5.000
C          25.668   13.652    2.746
C          24.479   13.104    2.727
C          23.959   12.360    3.827
C          24.737   12.186    4.951
C          22.680   11.687    3.855
C          22.345   10.964    4.966
C          23.188   10.858    6.040
N          24.416   11.469    6.047
N          27.238   11.428    9.046
C          28.210   10.615    9.317
C          28.972   10.588   10.484
C          28.673   11.542   11.455
C          27.640   12.460   11.246
C          26.896   12.381   10.042
C          27.230   13.498   12.181
C          26.259   14.351   11.902
C          25.494   14.266   10.660
C          25.855   13.265    9.746
C          24.462   15.104   10.338
C          23.813   14.958    9.119
C          24.206   13.863    8.265
N          25.200   13.034    8.594
N          26.584    9.601    6.752
C          27.526    9.437    5.822
C          27.992    8.191    5.405
C          27.431    7.053    5.967
C          26.472    7.213    6.913
C          26.052    8.493    7.342
C          25.833    6.036    7.553
C          24.912    6.232    8.441
C          24.424    7.590    8.929
C          25.070    8.699    8.314
C          23.477    7.827    9.816
C          23.153    9.161   10.185
C          23.831   10.286    9.609
N          24.762    9.992    8.656
H          28.525   13.037    7.035
H          29.401   14.344    5.247
H          28.189   14.519    3.255
H          25.988   14.121    1.980
H          23.940   13.213    1.944
H          22.091   11.730    3.100
H          21.487   10.519    4.996
H          22.919   10.360    6.809
H          28.419    9.961    8.645
H          29.666    9.945   10.649
H          29.193   11.603   12.258
H          27.722   13.579   12.998
H          26.052   15.029   12.544
H          24.212   15.810   10.935
H          23.128   15.571    8.860
H          23.745   13.707    7.441
H          27.869   10.216    5.378
H          28.692    8.128    4.758
H          27.733    6.184    5.688
H          26.089    5.148    7.286
H          24.529    5.435    8.824
H          22.997    7.092   10.231
H          22.470    9.308   10.839
H          23.659   11.188    9.861
 
Os 1.56
 
 
